Output_case1_3p/output_voltage_1440.csv
# Output_case1_3p\output_voltage_1440.csv run at 2000-01-02 00:00:00 EST on 963 nodes
node_name,voltA_mag,voltA_angle,voltB_mag,voltB_angle,voltC_mag,voltC_angle
SourceBus,6668.395609,0.000000,6668.395609,4.188790,6668.395609,2.094395
Bus1,252.126892,-0.524083,252.126892,3.664707,252.126892,1.570312
Bus2,252.121203,-0.524080,252.121203,3.664711,252.121203,1.570316
Bus3,252.120607,-0.524079,252.120607,3.664711,252.120607,1.570316
Bus4,252.120048,-0.524079,252.120048,3.664711,252.120048,1.570316
Bus5,252.119561,-0.524078,252.119561,3.664712,252.119561,1.570317
Bus6,252.118794,-0.524078,252.118794,3.664712,252.118794,1.570317
Bus7,252.066536,-0.524045,252.066536,3.664746,252.066536,1.570350
Bus8,252.064196,-0.524043,252.064196,3.664747,252.064196,1.570352
Bus9,252.062248,-0.524042,252.062248,3.664748,252.062248,1.570353
Bus10,252.060538,-0.524041,252.060538,3.664749,252.060538,1.570354
Bus11,252.059263,-0.524040,252.059263,3.664750,252.059263,1.570355
Bus12,252.058065,-0.524039,252.058065,3.664751,252.058065,1.570356
Bus13,252.057329,-0.524039,252.057329,3.664751,252.057329,1.570356
Bus14,252.055495,-0.524038,252.055495,3.664753,252.055495,1.570358
Bus15,252.040645,-0.524028,252.040645,3.664762,252.040645,1.570367
Bus16,252.040645,-0.524028,252.040645,3.664762,252.040645,1.570367
Bus17,252.022636,-0.524017,252.022636,3.664774,252.022636,1.570378
Bus18,252.040645,-0.524028,252.040645,3.664762,252.040645,1.570367
Bus19,252.021397,-0.524016,252.021397,3.664774,252.021397,1.570379
Bus20,252.040645,-0.524028,252.040645,3.664762,252.040645,1.570367
Bus21,252.020005,-0.524015,252.020005,3.664775,252.020005,1.570380
Bus22,252.040645,-0.524028,252.040645,3.664762,252.040645,1.570367
Bus23,252.017740,-0.524014,252.017740,3.664777,252.017740,1.570382
Bus24,252.040645,-0.524028,252.040645,3.664762,252.040645,1.570367
Bus25,252.013618,-0.524011,252.013618,3.664779,252.013618,1.570384
Bus26,252.040645,-0.524028,252.040645,3.664762,252.040645,1.570367
Bus27,252.010444,-0.524008,252.010444,3.664782,252.010444,1.570387
Bus28,251.964105,-0.523979,251.964105,3.664811,251.964105,1.570416
Bus29,252.040645,-0.524028,252.040645,3.664762,252.040645,1.570367
Bus30,252.010362,-0.524008,252.010362,3.664783,252.010362,1.570387
Bus31,252.009672,-0.524007,252.009672,3.664783,252.009672,1.570388
Bus32,251.950923,-0.523971,251.950923,3.664819,251.950923,1.570424
Bus33,252.040645,-0.524028,252.040645,3.664762,252.040645,1.570367
Bus34,252.010174,-0.524008,252.010174,3.664783,252.010174,1.570388
Bus35,252.009646,-0.524007,252.009646,3.664783,252.009646,1.570388
Bus36,251.950015,-0.523970,251.950015,3.664820,251.950015,1.570425
Bus37,251.911573,-0.523946,251.911573,3.664844,251.911573,1.570449
Bus38,252.040645,-0.524028,252.040645,3.664762,252.040645,1.570367
Bus39,252.009609,-0.524007,252.009609,3.664783,252.009609,1.570388
Bus40,251.949983,-0.523970,251.949983,3.664820,251.949983,1.570425
Bus41,251.949870,-0.523970,251.949870,3.664820,251.949870,1.570425
Bus42,251.884267,-0.523928,251.884267,3.664862,251.884267,1.570467
Bus43,251.911573,-0.523946,251.911573,3.664844,251.911573,1.570449
Bus44,252.040645,-0.524028,252.040645,3.664762,252.040645,1.570367
Bus45,252.009561,-0.524007,252.009561,3.664783,252.009561,1.570388
Bus46,251.949969,-0.523970,251.949969,3.664820,251.949969,1.570425
Bus47,251.949523,-0.523969,251.949523,3.664821,251.949523,1.570426
Bus48,251.863633,-0.523915,251.863633,3.664875,251.863633,1.570480
Bus49,251.911573,-0.523946,251.911573,3.664844,251.911573,1.570449
Bus50,252.040645,-0.524028,252.040645,3.664762,252.040645,1.570367
Bus51,252.009443,-0.524007,252.009443,3.664783,252.009443,1.570388
Bus52,251.949954,-0.523970,251.949954,3.664820,251.949954,1.570425
Bus53,251.860658,-0.523913,251.860658,3.664877,251.860658,1.570482
Bus54,251.863633,-0.523915,251.863633,3.664875,251.863633,1.570480
Bus55,251.911573,-0.523946,251.911573,3.664844,251.911573,1.570449
Bus56,252.040645,-0.524028,252.040645,3.664762,252.040645,1.570367
Bus57,252.009343,-0.524007,252.009343,3.664784,252.009343,1.570388
Bus58,251.949940,-0.523970,251.949940,3.664820,251.949940,1.570425
Bus59,251.847182,-0.523905,251.847182,3.664886,251.847182,1.570491
Bus60,251.863633,-0.523915,251.863633,3.664875,251.863633,1.570480
Bus61,251.911573,-0.523946,251.911573,3.664844,251.911573,1.570449
Bus62,252.040645,-0.524028,252.040645,3.664762,252.040645,1.570367
Bus63,252.008861,-0.524006,252.008861,3.664784,252.008861,1.570389
Bus64,251.949931,-0.523970,251.949931,3.664820,251.949931,1.570425
Bus65,251.844604,-0.523903,251.844604,3.664887,251.844604,1.570492
Bus66,251.841175,-0.523899,251.841175,3.664892,251.841175,1.570496
Bus67,251.863633,-0.523915,251.863633,3.664875,251.863633,1.570480
Bus68,251.911573,-0.523946,251.911573,3.664844,251.911573,1.570449
Bus69,252.040645,-0.524028,252.040645,3.664762,252.040645,1.570367
Bus70,252.007158,-0.524005,252.007158,3.664786,252.007158,1.570391
Bus71,251.949915,-0.523970,251.949915,3.664820,251.949915,1.570425
Bus72,251.814148,-0.523883,251.814148,3.664907,251.814148,1.570512
Bus73,251.840897,-0.523898,251.840897,3.664892,251.840897,1.570497
Bus74,251.838516,-0.523896,251.838516,3.664894,251.838516,1.570499
Bus75,251.863633,-0.523915,251.863633,3.664875,251.863633,1.570480
Bus76,251.911573,-0.523946,251.911573,3.664844,251.911573,1.570449
Bus77,252.040645,-0.524028,252.040645,3.664762,252.040645,1.570367
Bus78,251.949829,-0.523970,251.949829,3.664820,251.949829,1.570425
Bus79,251.803532,-0.523877,251.803532,3.664914,251.803532,1.570518
Bus80,251.863633,-0.523915,251.863633,3.664875,251.863633,1.570480
Bus81,251.911573,-0.523946,251.911573,3.664844,251.911573,1.570449
Bus82,252.040645,-0.524028,252.040645,3.664762,252.040645,1.570367
Bus83,251.949508,-0.523969,251.949508,3.664821,251.949508,1.570426
Bus84,251.801215,-0.523875,251.801215,3.664915,251.801215,1.570520
Bus85,251.863633,-0.523915,251.863633,3.664875,251.863633,1.570480
Bus86,251.911573,-0.523946,251.911573,3.664844,251.911573,1.570449
Bus87,252.040645,-0.524028,252.040645,3.664762,252.040645,1.570367
Bus88,251.796517,-0.523872,251.796517,3.664918,251.796517,1.570523
Bus89,251.863633,-0.523915,251.863633,3.664875,251.863633,1.570480
Bus90,251.911573,-0.523946,251.911573,3.664844,251.911573,1.570449
Bus91,252.040645,-0.524028,252.040645,3.664762,252.040645,1.570367
Bus92,251.792087,-0.523869,251.792087,3.664921,251.792087,1.570526
Bus93,251.911573,-0.523946,251.911573,3.664844,251.911573,1.570449
Bus94,252.040645,-0.524028,252.040645,3.664762,252.040645,1.570367
Bus95,251.789512,-0.523868,251.789512,3.664923,251.789512,1.570527
Bus96,251.911573,-0.523946,251.911573,3.664844,251.911573,1.570449
Bus97,252.040645,-0.524028,252.040645,3.664762,252.040645,1.570367
Bus98,251.787811,-0.523867,251.787811,3.664924,251.787811,1.570528
Bus99,251.911573,-0.523946,251.911573,3.664844,251.911573,1.570449
Bus100,252.040645,-0.524028,252.040645,3.664762,252.040645,1.570367
Bus101,251.785463,-0.523865,251.785463,3.664925,251.785463,1.570530
Bus102,251.911573,-0.523946,251.911573,3.664844,251.911573,1.570449
Bus103,252.040645,-0.524028,252.040645,3.664762,252.040645,1.570367
Bus104,251.785445,-0.523865,251.785445,3.664925,251.785445,1.570530
Bus105,251.784000,-0.523864,251.784000,3.664926,251.784000,1.570531
Bus106,251.911573,-0.523946,251.911573,3.664844,251.911573,1.570449
Bus107,251.785424,-0.523865,251.785424,3.664925,251.785424,1.570530
Bus108,251.783170,-0.523864,251.783170,3.664927,251.783170,1.570531
Bus109,251.911573,-0.523946,251.911573,3.664844,251.911573,1.570449
Bus110,251.785399,-0.523865,251.785399,3.664925,251.785399,1.570530
Bus111,251.750435,-0.523843,251.750435,3.664947,251.750435,1.570552
Bus112,251.911573,-0.523946,251.911573,3.664844,251.911573,1.570449
Bus113,251.785361,-0.523865,251.785361,3.664925,251.785361,1.570530
Bus114,251.747156,-0.523841,251.747156,3.664950,251.747156,1.570554
Bus115,251.911573,-0.523946,251.911573,3.664844,251.911573,1.570449
Bus116,251.785312,-0.523865,251.785312,3.664925,251.785312,1.570530
Bus117,251.746893,-0.523841,251.746893,3.664949,251.746893,1.570554
Bus118,251.739382,-0.523839,251.739382,3.664951,251.739382,1.570556
Bus119,251.911573,-0.523946,251.911573,3.664844,251.911573,1.570449
Bus120,251.785277,-0.523865,251.785277,3.664925,251.785277,1.570530
Bus121,251.746893,-0.523841,251.746893,3.664949,251.746893,1.570554
Bus122,251.746765,-0.523841,251.746765,3.664949,251.746765,1.570554
Bus123,251.725362,-0.523836,251.725362,3.664955,251.725362,1.570559
Bus124,251.911573,-0.523946,251.911573,3.664844,251.911573,1.570449
Bus125,251.785227,-0.523865,251.785227,3.664925,251.785227,1.570530
Bus126,251.746893,-0.523841,251.746893,3.664949,251.746893,1.570554
Bus127,251.746163,-0.523842,251.746163,3.664948,251.746163,1.570553
Bus128,251.719058,-0.523834,251.719058,3.664956,251.719058,1.570561
Bus129,251.911573,-0.523946,251.911573,3.664844,251.911573,1.570449
Bus130,251.785174,-0.523866,251.785174,3.664925,251.785174,1.570530
Bus131,251.746893,-0.523841,251.746893,3.664949,251.746893,1.570554
Bus132,251.745889,-0.523842,251.745889,3.664949,251.745889,1.570553
Bus133,251.744503,-0.523844,251.744503,3.664946,251.744503,1.570551
Bus134,251.717182,-0.523834,251.717182,3.664956,251.717182,1.570561
Bus135,251.911573,-0.523946,251.911573,3.664844,251.911573,1.570449
Bus136,251.785123,-0.523866,251.785123,3.664925,251.785123,1.570530
Bus137,251.746893,-0.523841,251.746893,3.664949,251.746893,1.570554
Bus138,251.745866,-0.523842,251.745866,3.664949,251.745866,1.570553
Bus139,251.743268,-0.523846,251.743268,3.664944,251.743268,1.570549
Bus140,251.715065,-0.523833,251.715065,3.664957,251.715065,1.570562
Bus141,251.911573,-0.523946,251.911573,3.664844,251.911573,1.570449
Bus142,251.785040,-0.523866,251.785040,3.664925,251.785040,1.570529
Bus143,251.746893,-0.523841,251.746893,3.664949,251.746893,1.570554
Bus144,251.745843,-0.523842,251.745843,3.664949,251.745843,1.570553
Bus145,251.742442,-0.523847,251.742442,3.664943,251.742442,1.570548
Bus146,251.713073,-0.523833,251.713073,3.664957,251.713073,1.570562
Bus147,251.911573,-0.523946,251.911573,3.664844,251.911573,1.570449
Bus148,251.784645,-0.523866,251.784645,3.664924,251.784645,1.570529
Bus149,251.746893,-0.523841,251.746893,3.664949,251.746893,1.570554
Bus150,251.745824,-0.523842,251.745824,3.664949,251.745824,1.570553
Bus151,251.742130,-0.523847,251.742130,3.664943,251.742130,1.570548
Bus152,251.734604,-0.523839,251.734604,3.664951,251.734604,1.570556
Bus153,251.710750,-0.523832,251.710750,3.664958,251.710750,1.570563
Bus154,251.911573,-0.523946,251.911573,3.664844,251.911573,1.570449
Bus155,251.784559,-0.523866,251.784559,3.664924,251.784559,1.570529
Bus156,251.746893,-0.523841,251.746893,3.664949,251.746893,1.570554
Bus157,251.745796,-0.523842,251.745796,3.664949,251.745796,1.570553
Bus158,251.741304,-0.523849,251.741304,3.664942,251.741304,1.570546
Bus159,251.734127,-0.523839,251.734127,3.664951,251.734127,1.570556
Bus160,251.710081,-0.523832,251.710081,3.664958,251.710081,1.570563
Bus161,251.911573,-0.523946,251.911573,3.664844,251.911573,1.570449
Bus162,251.781095,-0.523863,251.781095,3.664927,251.781095,1.570532
Bus163,251.784380,-0.523867,251.784380,3.664924,251.784380,1.570529
Bus164,251.746893,-0.523841,251.746893,3.664949,251.746893,1.570554
Bus165,251.745762,-0.523842,251.745762,3.664949,251.745762,1.570554
Bus166,251.741018,-0.523849,251.741018,3.664941,251.741018,1.570546
Bus167,251.733691,-0.523839,251.733691,3.664952,251.733691,1.570557
Bus168,251.706283,-0.523831,251.706283,3.664959,251.706283,1.570564
Bus169,251.911573,-0.523946,251.911573,3.664844,251.911573,1.570449
Bus170,251.780441,-0.523862,251.780441,3.664928,251.780441,1.570533
Bus171,251.784143,-0.523867,251.784143,3.664923,251.784143,1.570528
Bus172,251.746893,-0.523841,251.746893,3.664949,251.746893,1.570554
Bus173,251.745737,-0.523842,251.745737,3.664949,251.745737,1.570554
Bus174,251.741018,-0.523849,251.741018,3.664941,251.741018,1.570546
Bus175,251.737131,-0.523845,251.737131,3.664945,251.737131,1.570550
Bus176,251.733510,-0.523838,251.733510,3.664952,251.733510,1.570557
Bus177,251.704137,-0.523831,251.704137,3.664959,251.704137,1.570564
Bus178,251.779090,-0.523861,251.779090,3.664929,251.779090,1.570534
Bus179,251.784120,-0.523867,251.784120,3.664923,251.784120,1.570528
Bus180,251.783783,-0.523867,251.783783,3.664924,251.783783,1.570529
Bus181,251.746893,-0.523841,251.746893,3.664949,251.746893,1.570554
Bus182,251.745707,-0.523842,251.745707,3.664949,251.745707,1.570554
Bus183,251.741018,-0.523849,251.741018,3.664941,251.741018,1.570546
Bus184,251.736711,-0.523845,251.736711,3.664945,251.736711,1.570550
Bus185,251.733120,-0.523838,251.733120,3.664952,251.733120,1.570557
Bus186,251.702545,-0.523830,251.702545,3.664960,251.702545,1.570565
Bus187,251.784028,-0.523867,251.784028,3.664923,251.784028,1.570528
Bus188,251.782290,-0.523865,251.782290,3.664925,251.782290,1.570530
Bus189,251.746893,-0.523841,251.746893,3.664949,251.746893,1.570554
Bus190,251.745679,-0.523841,251.745679,3.664949,251.745679,1.570554
Bus191,251.741018,-0.523849,251.741018,3.664941,251.741018,1.570546
Bus192,251.741018,-0.523849,251.741018,3.664941,251.741018,1.570546
Bus193,251.736305,-0.523844,251.736305,3.664946,251.736305,1.570551
Bus194,251.732126,-0.523837,251.732126,3.664953,251.732126,1.570558
Bus195,251.701113,-0.523830,251.701113,3.664960,251.701113,1.570565
Bus196,251.783864,-0.523867,251.783864,3.664923,251.783864,1.570528
Bus197,251.782144,-0.523865,251.782144,3.664925,251.782144,1.570530
Bus198,251.782205,-0.523865,251.782205,3.664925,251.782205,1.570530
Bus199,251.746893,-0.523841,251.746893,3.664949,251.746893,1.570554
Bus200,251.745649,-0.523841,251.745649,3.664949,251.745649,1.570554
...
SourceBus_1,6667.899347,-0.000118,6667.899347,4.188672,6667.899347,2.094277
LOAD1,252.010174,-0.524008,252.010174,3.664783,252.010174,1.570388
LOAD2,251.949523,-0.523969,251.949523,3.664821,251.949523,1.570426
LOAD3,252.007158,-0.524005,252.007158,3.664786,252.007158,1.570391
LOAD4,251.840897,-0.523898,251.840897,3.664892,251.840897,1.570497
LOAD5,251.838516,-0.523896,251.838516,3.664894,251.838516,1.570499
LOAD6,251.949508,-0.523969,251.949508,3.664821,251.949508,1.570426
LOAD7,251.779090,-0.523861,251.779090,3.664929,251.779090,1.570534
LOAD8,251.781775,-0.523865,251.781775,3.664926,251.781775,1.570531
LOAD9,251.782516,-0.523866,251.782516,3.664924,251.782516,1.570529
LOAD10,251.781556,-0.523865,251.781556,3.664925,251.781556,1.570530
LOAD11,251.781548,-0.523865,251.781548,3.664925,251.781548,1.570530
LOAD12,251.781676,-0.523865,251.781676,3.664926,251.781676,1.570531
LOAD13,251.715279,-0.523821,251.715279,3.664970,251.715279,1.570575
LOAD14,251.745135,-0.523841,251.745135,3.664949,251.745135,1.570554
LOAD15,251.725055,-0.523830,251.725055,3.664960,251.725055,1.570565
LOAD16,251.730857,-0.523839,251.730857,3.664951,251.730857,1.570556
LOAD17,251.728575,-0.523837,251.728575,3.664953,251.728575,1.570558
LOAD18,251.647597,-0.523809,251.647597,3.664981,251.647597,1.570586
LOAD19,251.677731,-0.523824,251.677731,3.664966,251.677731,1.570571
LOAD20,251.658752,-0.523816,251.658752,3.664974,251.658752,1.570579
LOAD21,251.684050,-0.523824,251.684050,3.664966,251.684050,1.570571
LOAD22,251.658665,-0.523816,251.658665,3.664974,251.658665,1.570579
LOAD23,251.623576,-0.523788,251.623576,3.665002,251.623576,1.570607
LOAD24,251.643238,-0.523806,251.643238,3.664984,251.643238,1.570589
LOAD25,251.613494,-0.523787,251.613494,3.665003,251.613494,1.570608
LOAD26,251.617205,-0.523809,251.617205,3.664981,251.617205,1.570586
LOAD27,251.644218,-0.523813,251.644218,3.664977,251.644218,1.570582
LOAD28,251.641214,-0.523811,251.641214,3.664980,251.641214,1.570585
LOAD29,251.603220,-0.523779,251.603220,3.665011,251.603220,1.570616
LOAD30,251.613657,-0.523787,251.613657,3.665003,251.613657,1.570608
LOAD31,251.604373,-0.523781,251.604373,3.665010,251.604373,1.570615
LOAD32,251.610967,-0.523809,251.610967,3.664981,251.610967,1.570586
LOAD33,251.598511,-0.523777,251.598511,3.665014,251.598511,1.570619
LOAD34,251.620991,-0.523792,251.620991,3.664998,251.620991,1.570603
LOAD35,251.601746,-0.523780,251.601746,3.665010,251.601746,1.570615
LOAD36,251.599471,-0.523777,251.599471,3.665013,251.599471,1.570618
LOAD37,251.598135,-0.523776,251.598135,3.665014,251.598135,1.570619
LOAD38,251.601544,-0.523807,251.601544,3.664983,251.601544,1.570588
LOAD39,251.591901,-0.523804,251.591901,3.664986,251.591901,1.570591
LOAD40,251.586253,-0.523804,251.586253,3.664987,251.586253,1.570592
LOAD41,251.544315,-0.523772,251.544315,3.665019,251.544315,1.570623
LOAD42,251.591848,-0.523804,251.591848,3.664986,251.591848,1.570591
LOAD43,251.537489,-0.523768,251.537489,3.665022,251.537489,1.570627
LOAD44,251.615780,-0.523810,251.615780,3.664980,251.615780,1.570585
LOAD45,251.550139,-0.523777,251.550139,3.665013,251.550139,1.570618
LOAD46,251.574960,-0.523783,251.574960,3.665007,251.574960,1.570612
LOAD47,251.539102,-0.523770,251.539102,3.665020,251.539102,1.570625
LOAD48,251.577596,-0.523785,251.577596,3.665005,251.577596,1.570610
LOAD49,251.572063,-0.523780,251.572063,3.665010,251.572063,1.570615
LOAD50,251.547193,-0.523779,251.547193,3.665011,251.547193,1.570616
LOAD51,251.574505,-0.523796,251.574505,3.664994,251.574505,1.570599
LOAD52,251.547751,-0.523779,251.547751,3.665011,251.547751,1.570616
LOAD53,251.547018,-0.523779,251.547018,3.665012,251.547018,1.570617
LOAD54,251.573989,-0.523796,251.573989,3.664995,251.573989,1.570599
LOAD55,251.547677,-0.523779,251.547677,3.665011,251.547677,1.570616
